STAAD SPACE TEST
START JOB INFORMATION
ENGINEER DATE 21-Nov-21
END JOB INFORMATION
INPUT WIDTH 79
UNIT METER KN
JOINT COORDINATES
1 -1 0 2; 2 -0.500001 0.866027 2; 3 0.500001 0.866027 2; 4 1 0 2;
5 0.500001 -0.866027 2; 6 -0.500001 -0.866027 2; 7 -1 0 0;
8 -0.500001 0.866405 0; 9 0.500001 0.866027 0; 10 1 0 0;
11 0.500001 -0.866027 0; 12 -0.500001 -0.866027 0;
MEMBER INCIDENCES
1 1 2; 2 2 3; 3 3 4; 4 4 5; 5 5 6; 6 6 1; 7 1 7; 8 2 8; 9 3 9; 10 4 10;
11 5 11; 12 6 12; 13 1 3; 14 1 4; 15 1 5; 16 6 4; 17 6 3; 18 6 2; 19 5 3;
20 5 2; 21 4 2;
DEFINE MATERIAL START
ISOTROPIC STEEL
E 1.99947e+08
POISSON 0.3
DENSITY 76.8191
ALPHA 6.5e-06
DAMP 0.03
G 7.7221e+07
TYPE STEEL
STRENGTH RY 1.5 RT 1.2
ISOTROPIC CONCRETE
E 2.17184e+07
POISSON 0.17
DENSITY 23.5615
ALPHA 5.5e-06
DAMP 0.05
G 9.28137e+06
TYPE CONCRETE
STRENGTH FCU 27578.9
ISOTROPIC HIGHE
E 1.99947e+19
POISSON 0.3
DENSITY 76.8191
ALPHA 6.5e-06
DAMP 0.03
G 7.7221e+07
END DEFINE MATERIAL
MEMBER PROPERTY INDIAN
1 TO 12 TABLE ST ISHB400
MEMBER PROPERTY
13 TO 21 PRIS YD 0.1
CONSTANTS
MATERIAL STEEL MEMB 1 TO 12
MATERIAL HIGHE MEMB 13 TO 21
SUPPORTS
7 TO 12 FIXED
MEMBER TRUSS 
13 TO 21
LOAD 1 LOADTYPE Live  TITLE LL
JOINT LOAD
1 FX 10
PERFORM ANALYSIS PRINT ALL
LOAD LIST 1
FINISH
